LTspice 26.0.1 for Windows
Circuit: D:\AI-agent\Audio\Quad405\Quad405 알리.net
Start Time: Fri Jan 30 15:06:53 2026
Options:method=gear reltol=0.01 abstol=1e-6 vntol=1e-3
solver = Normal
Maximum thread count: 20
tnom = 27
temp = 27
method = Gear
abstol = 1e-06
reltol = 0.01
volttol = 0.001
Compress1stOrder = true
Compress2ndOrder = true
Direct Newton iteration failed to find operating point.
Starting Gmin stepping
Gmin stepping succeeded in finding the operating point.

Total elapsed time: 0.223 seconds.

Files loaded:
D:\AI-agent\Audio\Quad405\Quad405 알리.net
C:\Users\jys\AppData\Local\LTspice\lib\cmp\standard.dio
C:\Users\jys\AppData\Local\LTspice\lib\cmp\standard.bjt
D:\AI-agent\Audio\Quad405\NE5534.lib
D:\AI-agent\Audio\Quad405\OPA1641.lib

pavg: AVG(( -V(out)*I(R50)) )=281.084922587 FROM 0.001 TO 0.003
